
set Element ShellMITC9

set tcl_precision 17

model basic -ndm 3 -ndf 6

set E 30000.0
set G 12000.0
set nu [expr $E/(2*$G) - 1.0]
set Fy 35.0
set Hkin 60.0 
set Hiso 60.0

# material J2PlateFibre 1 -E $E -G $G -Fy $Fy -Hkin $Hkin -Hiso $Hiso
nDMaterial J2PlateFibre 1 $E $nu $Fy $Hiso $Hkin

section LayeredShell 1 5 1 0.258 1 0.258 1 0.258 1 0.258 1 0.258 
section LayeredShell 2 5 1 0.414 1 0.414 1 0.414 1 0.414 1 0.414 

node  1 0.0 -8.05 8.35 
node  2 0.875 -8.05 8.35 
node  3 1.75 -8.050000000000002 8.35 
node  4 2.625 -8.05 8.35 
node  5 3.5 -8.05 8.35 
node  6 4.375 -8.05 8.35 
node  7 5.25 -8.05 8.35 
node  8 6.125 -8.050000000000002 8.35 
node  9 7.0 -8.05 8.35 
node 10 7.875 -8.05 8.35 
node 11 8.75 -8.05 8.35 
node 12 9.625 -8.05 8.35 
node 13 10.5 -8.05 8.35 
node 14 11.375 -8.05 8.35 
node 15 12.25 -8.05 8.35 
node 16 13.125 -8.05 8.35 
node 17 14.0 -8.05 8.35 
node 18 14.875 -8.05 8.35 
node 19 15.75 -8.05 8.35 
node 20 16.625 -8.05 8.35 
# ... 1201 like lines cut

node 1222 0.0 -8.05 -8.35 
node 1223 0.875 -8.05 -8.35 
node 1224 1.75 -8.050000000000002 -8.35 
node 1225 2.625 -8.05 -8.35 
node 1226 3.5 -8.05 -8.35 
node 1227 4.375 -8.05 -8.35 
node 1228 5.25 -8.05 -8.35 
node 1229 6.125 -8.050000000000002 -8.35 
node 1230 7.0 -8.05 -8.35 
node 1231 7.875 -8.05 -8.35 
node 1232 8.75 -8.05 -8.35 
node 1233 9.625 -8.05 -8.35 
node 1234 10.5 -8.05 -8.35 
node 1235 11.375 -8.05 -8.35 
node 1236 12.25 -8.05 -8.35 
node 1237 13.125 -8.05 -8.35 
node 1238 14.0 -8.05 -8.35 
node 1239 14.875 -8.05 -8.35 
node 1240 15.75 -8.05 -8.35 
node 1241 16.625 -8.05 -8.35 
# ... 244 like lines cut

node 1486 0.0 1.00625 -8.35 
node 1487 1.75 1.0062500000000003 -8.35 
node 1488 3.5 1.00625 -8.35 
node 1489 5.25 1.00625 -8.35 
node 1490 7.0 1.00625 -8.35 
node 1491 8.75 1.00625 -8.35 
node 1492 10.5 1.00625 -8.35 
node 1493 12.25 1.00625 -8.35 
node 1494 14.0 1.00625 -8.35 
node 1495 15.75 1.00625 -8.35 
node 1496 17.5 1.00625 -8.35 
node 1497 19.25 1.00625 -8.35 
node 1498 21.0 1.00625 -8.349999999999998 
node 1499 22.75 1.0062499999999999 -8.35 
node 1500 24.5 1.00625 -8.35 
node 1501 26.25 1.0062500000000003 -8.350000000000001 
node 1502 28.0 1.00625 -8.35 
node 1503 0.0 2.0125 -8.349999999999998 
node 1504 0.875 2.0125 -8.35 
node 1505 1.75 2.0124999999999997 -8.35 
# ... 244 like lines cut

element $Element  1  1 3 53 51 2 35 52 34 234 2 
element $Element  2  3 5 55 53 4 36 54 35 235 2 
element $Element  3  5 7 57 55 6 37 56 36 236 2 
element $Element  4  7 9 59 57 8 38 58 37 237 2 
element $Element  5  9 11 61 59 10 39 60 38 238 2 
element $Element  6  11 13 63 61 12 40 62 39 239 2 
element $Element  7  13 15 65 63 14 41 64 40 240 2 
element $Element  8  15 17 67 65 16 42 66 41 241 2 
element $Element  9  17 19 69 67 18 43 68 42 242 2 
element $Element 10  19 21 71 69 20 44 70 43 243 2 
element $Element 11  21 23 73 71 22 45 72 44 244 2 
element $Element 12  23 25 75 73 24 46 74 45 245 2 
element $Element 13  25 27 77 75 26 47 76 46 246 2 
element $Element 14  27 29 79 77 28 48 78 47 247 2 
element $Element 15  29 31 81 79 30 49 80 48 248 2 
element $Element 16  31 33 83 81 32 50 82 49 249 2 
element $Element 17  51 53 103 101 52 85 102 84 250 2 
element $Element 18  53 55 105 103 54 86 104 85 251 2 
element $Element 19  55 57 107 105 56 87 106 86 252 2 
element $Element 20  57 59 109 107 58 88 108 87 253 2 
# ... 268 like lines cut

element $Element 289  1222 1224 1274 1272 1223 1256 1273 1255 1422 2 
element $Element 290  1224 1226 1276 1274 1225 1257 1275 1256 1423 2 
element $Element 291  1226 1228 1278 1276 1227 1258 1277 1257 1424 2 
element $Element 292  1228 1230 1280 1278 1229 1259 1279 1258 1425 2 
element $Element 293  1230 1232 1282 1280 1231 1260 1281 1259 1426 2 
element $Element 294  1232 1234 1284 1282 1233 1261 1283 1260 1427 2 
element $Element 295  1234 1236 1286 1284 1235 1262 1285 1261 1428 2 
element $Element 296  1236 1238 1288 1286 1237 1263 1287 1262 1429 2 
element $Element 297  1238 1240 1290 1288 1239 1264 1289 1263 1430 2 
element $Element 298  1240 1242 1292 1290 1241 1265 1291 1264 1431 2 
element $Element 299  1242 1244 1294 1292 1243 1266 1293 1265 1432 2 
element $Element 300  1244 1246 1296 1294 1245 1267 1295 1266 1433 2 
element $Element 301  1246 1248 1298 1296 1247 1268 1297 1267 1434 2 
element $Element 302  1248 1250 1300 1298 1249 1269 1299 1268 1435 2 
element $Element 303  1250 1252 1302 1300 1251 1270 1301 1269 1436 2 
element $Element 304  1252 1254 1304 1302 1253 1271 1303 1270 1437 2 
element $Element 305  1272 1274 1324 1322 1273 1306 1323 1305 1438 2 
element $Element 306  1274 1276 1326 1324 1275 1307 1325 1306 1439 2 
element $Element 307  1276 1278 1328 1326 1277 1308 1327 1307 1440 2 
element $Element 308  1278 1280 1330 1328 1279 1309 1329 1308 1441 2 
# ... 44 like lines cut

element $Element 353  1029 1031 1505 1503 1030 1487 1504 1486 1686 2 
element $Element 354  1031 1033 1507 1505 1032 1488 1506 1487 1687 2 
element $Element 355  1033 1035 1509 1507 1034 1489 1508 1488 1688 2 
element $Element 356  1035 1037 1511 1509 1036 1490 1510 1489 1689 2 
element $Element 357  1037 1039 1513 1511 1038 1491 1512 1490 1690 2 
element $Element 358  1039 1041 1515 1513 1040 1492 1514 1491 1691 2 
element $Element 359  1041 1043 1517 1515 1042 1493 1516 1492 1692 2 
element $Element 360  1043 1045 1519 1517 1044 1494 1518 1493 1693 2 
element $Element 361  1045 1047 1521 1519 1046 1495 1520 1494 1694 2 
element $Element 362  1047 1049 1523 1521 1048 1496 1522 1495 1695 2 
element $Element 363  1049 1051 1525 1523 1050 1497 1524 1496 1696 2 
element $Element 364  1051 1053 1527 1525 1052 1498 1526 1497 1697 2 
element $Element 365  1053 1055 1529 1527 1054 1499 1528 1498 1698 2 
element $Element 366  1055 1057 1531 1529 1056 1500 1530 1499 1699 2 
element $Element 367  1057 1059 1533 1531 1058 1501 1532 1500 1700 2 
element $Element 368  1059 1061 1535 1533 1060 1502 1534 1501 1701 2 
element $Element 369  1503 1505 1555 1553 1504 1537 1554 1536 1702 2 
element $Element 370  1505 1507 1557 1555 1506 1538 1556 1537 1703 2 
element $Element 371  1507 1509 1559 1557 1508 1539 1558 1538 1704 2 
element $Element 372  1509 1511 1561 1559 1510 1540 1560 1539 1705 2 
# ... 44 like lines cut

fix 1 1 1 1 1 1 1 
fix 34 1 1 1 1 1 1 
fix 51 1 1 1 1 1 1 
fix 84 1 1 1 1 1 1 
fix 101 1 1 1 1 1 1 
fix 134 1 1 1 1 1 1 
fix 151 1 1 1 1 1 1 
fix 184 1 1 1 1 1 1 
fix 201 1 1 1 1 1 1 
fix 298 1 1 1 1 1 1 
fix 315 1 1 1 1 1 1 
fix 348 1 1 1 1 1 1 
fix 365 1 1 1 1 1 1 
fix 398 1 1 1 1 1 1 
fix 415 1 1 1 1 1 1 
fix 448 1 1 1 1 1 1 
fix 465 1 1 1 1 1 1 
fix 562 1 1 1 1 1 1 
fix 579 1 1 1 1 1 1 
fix 612 1 1 1 1 1 1 
# ... 86 like lines cut

timeSeries Path 1 -values {0 0.5 -0.5 0.0} -time {0 1 4 5}

pattern Plain 1 1 {
    sp 33 3 1.0 
    sp 50 3 1.0 
    sp 83 3 1.0 
    sp 100 3 1.0 
    sp 133 3 1.0 
    sp 150 3 1.0 
    sp 183 3 1.0 
    sp 200 3 1.0 
    sp 233 3 1.0 
    sp 314 3 1.0 
    sp 347 3 1.0 
    sp 364 3 1.0 
    sp 397 3 1.0 
    sp 414 3 1.0 
    sp 447 3 1.0 
    sp 464 3 1.0 
    sp 497 3 1.0 
    sp 578 3 1.0 
    sp 611 3 1.0 
    sp 628 3 1.0 
# ... 33 like lines cut
}


numberer AMD 
system Umfpack 
constraints Transformation 
algorithm Newton
test EnergyIncr 1e-18 20 0 
integrator LoadControl 0.0008333333333333334 
analysis Static 

analyze 50; #5897

